$ MSC.Nastran input file created on May       21, 2019 at 17:31:08 by
$ Patran 2019  (Student Edition)
$ Direct Text Input for Nastran System Cell Section
$ Direct Text Input for File Management Section
$ Direct Text Input for Executive Control
$ Normal Modes Analysis, Database
SOL 103
CEND
$ Direct Text Input for Global Case Control Data
TITLE = MSC.Nastran job created on 01-May-19 at 14:20:04
ECHO = NONE
$ Using Nastran default values for RESVEC
SUBCASE 1
   METHOD = 1
   SPC = 2
   VECTOR(SORT1,REAL)=ALL
   SPCFORCES(SORT1,REAL)=ALL
$ Direct Text Input for this Subcase
BEGIN BULK
$ Direct Text Input for Bulk Data
MDLPRM   HDF5    0
PARAM    POST    0
PARAM   PRTMAXIM YES
EIGRL    1                       10      0                       MASS
$ Elements and Element Properties for region : Panel
PSHELL   1       1      .001     1               1
$ Pset: "Panel" will be imported as: "pshell.1"
CTRIA3   6274    1       10009   10010   10013
CTRIA3   6275    1       10013   10012   10009
CTRIA3   6276    1       10008   10009   10012
CTRIA3   6277    1       10012   10011   10008
CTRIA3   6278    1       10010   10009   10007
CTRIA3   6279    1       10006   10007   10009
CTRIA3   6280    1       10009   10008   10006
CTRIA3   6281    1       10007   10006   10005
CTRIA3   6282    1       10005   10006   10019
CTRIA3   6283    1       10018   10019   10006
CTRIA3   6284    1       10006   10008   10018
CTRIA3   6285    1       10014   10018   10008
CTRIA3   6286    1       10008   10011   10014
CTRIA3   6287    1       10019   10018   10017
CTRIA3   6288    1       10015   10017   10018
CTRIA3   6289    1       10018   10014   10015
CTRIA3   6290    1       10017   10015   10016
CTRIA3   6291    1       10016   10015   10025
CTRIA3   6292    1       10024   10025   10015
CTRIA3   6293    1       10015   10014   10024
$ ... 1339 like lines cut
$ Elements and Element Properties for region : Rig_Int
PBARL    2       1               T2
        .012    .02     .001    .001
$ Pset: "Rig_Int" will be imported as: "pbarl.2"
CBAR     7633    2       10100   10099   0.      0.     1.
                         0.      0.     -.0139   0.      0.     -.0139
CBAR     7634    2       10099   10098   0.      0.     1.
                         0.      0.     -.0139   0.      0.     -.0139
CBAR     7635    2       10098   10094   0.      0.     1.
                         0.      0.     -.0139   0.      0.     -.0139
CBAR     7636    2       10011   10008   0.      0.     1.
                         0.      0.     -.0139   0.      0.     -.0139
CBAR     7637    2       10008   10006   0.      0.     1.
                         0.      0.     -.0139   0.      0.     -.0139
CBAR     7638    2       10006   10005   0.      0.     1.
                         0.      0.     -.0139   0.      0.     -.0139
CBAR     7639    2       10100   10101   0.      0.     1.
                         0.      0.     -.0139   0.      0.     -.0139
CBAR     7640    2       10101   10103   0.      0.     1.
                         0.      0.     -.0139   0.      0.     -.0139
CBAR     7641    2       10103   10088   0.      0.     1.
                         0.      0.     -.0139   0.      0.     -.0139
CBAR     7642    2       10088   10089   0.      0.     1.
                         0.      0.     -.0139   0.      0.     -.0139
CBAR     7643    2       10089   10091   0.      0.     1.
                         0.      0.     -.0139   0.      0.     -.0139
CBAR     7644    2       10091   10076   0.      0.     1.
                         0.      0.     -.0139   0.      0.     -.0139
CBAR     7645    2       10076   10077   0.      0.     1.
                         0.      0.     -.0139   0.      0.     -.0139
CBAR     7646    2       10077   10079   0.      0.     1.
                         0.      0.     -.0139   0.      0.     -.0139
CBAR     7647    2       10079   10064   0.      0.     1.
                         0.      0.     -.0139   0.      0.     -.0139
CBAR     7648    2       10064   10065   0.      0.     1.
                         0.      0.     -.0139   0.      0.     -.0139
CBAR     7649    2       10065   10735   0.      0.     1.
                         0.      0.     -.0139   0.      0.     -.0139
CBAR     7650    2       10735   10052   0.      0.     1.
                         0.      0.     -.0139   0.      0.     -.0139
CBAR     7651    2       10052   10736   0.      0.     1.
                         0.      0.     -.0139   0.      0.     -.0139
CBAR     7652    2       10736   10055   0.      0.     1.
                         0.      0.     -.0139   0.      0.     -.0139
$ ... 1216 like lines cut
$ Elements and Element Properties for region : Rig_Ext
PBARL    3       1               BAR
        .001    .002
$ Pset: "Rig_Ext" will be imported as: "pbarl.3"
CBAR     8261    3       10013   10012   0.      0.     1.
                         0.      0.     -.0015   0.      0.     -.0015
CBAR     8262    3       10012   10011   0.      0.     1.
                         0.      0.     -.0015   0.      0.     -.0015
CBAR     8263    3       10422   10765   0.      0.     1.
                         0.      0.     -.0015   0.      0.     -.0015
CBAR     8264    3       10765   10766   0.      0.     1.
                         0.      0.     -.0015   0.      0.     -.0015
CBAR     8265    3       10766   10344   0.      0.     1.
                         0.      0.     -.0015   0.      0.     -.0015
CBAR     8266    3       10344   10346   0.      0.     1.
                         0.      0.     -.0015   0.      0.     -.0015
CBAR     8267    3       10346   10349   0.      0.     1.
                         0.      0.     -.0015   0.      0.     -.0015
CBAR     8268    3       10349   10265   0.      0.     1.
                         0.      0.     -.0015   0.      0.     -.0015
CBAR     8269    3       10265   10767   0.      0.     1.
                         0.      0.     -.0015   0.      0.     -.0015
CBAR     8270    3       10767   10768   0.      0.     1.
                         0.      0.     -.0015   0.      0.     -.0015
CBAR     8271    3       10768   10187   0.      0.     1.
                         0.      0.     -.0015   0.      0.     -.0015
CBAR     8272    3       10187   10189   0.      0.     1.
                         0.      0.     -.0015   0.      0.     -.0015
CBAR     8273    3       10189   10192   0.      0.     1.
                         0.      0.     -.0015   0.      0.     -.0015
CBAR     8274    3       10192   10109   0.      0.     1.
                         0.      0.     -.0015   0.      0.     -.0015
CBAR     8275    3       10109   10769   0.      0.     1.
                         0.      0.     -.0015   0.      0.     -.0015
CBAR     8276    3       10769   10770   0.      0.     1.
                         0.      0.     -.0015   0.      0.     -.0015
CBAR     8277    3       10770   10005   0.      0.     1.
                         0.      0.     -.0015   0.      0.     -.0015
CBAR     8278    3       10005   10007   0.      0.     1.
                         0.      0.     -.0015   0.      0.     -.0015
CBAR     8279    3       10007   10010   0.      0.     1.
                         0.      0.     -.0015   0.      0.     -.0015
CBAR     8280    3       10010   10013   0.      0.     1.
                         0.      0.     -.0015   0.      0.     -.0015
$ ... 166 like lines cut
$ Elements and Element Properties for region : instrument
CONM2    8364    10000          10.
$ Referenced Material Records
$ Material Record : EN_AW_6061_T6
$ Description of Material : Date: 29-Apr-19           Time: 20:46:24
MAT1     1      6.9+10          .33     2700.
$ Multipoint Constraints of Group : bandeja_A
RBE2     500     10000   123456  10001   10002   10003   10004
$ Nodes of Group : bandeja_A
GRID*    10000                          .300000011920929.300000011920929
*       .079999998211861
GRID*    10001                          .487500011920929.466666668653488
*        0.
GRID*    10002                          .112500004470348.466666698455811
*        0.
GRID*    10003                          .450000017881393.133333325386047
*        0.
GRID*    10004                          .150000005960465.133333340287209
*        0.
GRID*    10005                           0.             .533333480358124
*        0.
GRID*    10006                          .012500224635005.555556058883667
*        0.
GRID*    10007                           0.             .555555701255798
*        0.
GRID*    10008                          .025000255554914.577778279781342
*        0.
GRID*    10009                          .009375083260238.577778041362763
*        0.
GRID*    10010                           0.             .577777862548828
*        0.
GRID*    10011                          .037500001490116.600000023841858
*        0.
GRID*    10012                          .018750000745058.600000023841858
*        0.
GRID*    10013                           0.             .600000023841858
*        0.
GRID*    10014                          .050000011920929.577777802944183
*        0.
GRID*    10015                          .062499992549419.555555582046509
*        0.
GRID*    10016                          .075000002980232.533333361148834
*        0.
GRID*    10017                          .049999512732029.533333361148834
*        0.
GRID*    10018                          .037500005215406.555555582046509
*        0.
GRID*    10019                          .025000495836139.533333361148834
*        0.
$ ... 1274 like lines cut
GRID     10657           0.      0.      0.
GRID*    10658                          .012499991804361.022222209721804
*        0.
GRID*    10659                           0.             .0222222302109
*        0.
GRID*    10660                          .025000246241689.044444885104895
*        0.
GRID*    10661                          .009375041350722.044444516301155
*        0.
GRID*    10662                           0.             .04444444924593
*        0.
GRID*    10663                          .049999941140413.04444433376193
*        0.
GRID*    10664                          .062499981373549.022222178056836
*        0.
GRID*    10665                          .075000002980232 0.
*        0.
GRID*    10666                          .049999509006739 0.
*        0.
GRID*    10667                          .037499971687794.02222216501832
*        0.
GRID*    10668                          .025000495836139 0.
*        0.
GRID*    10669                          .099999718368053.044443942606449
*        0.
GRID*    10670                          .074999988079071.044444411993027
*        0.
GRID*    10671                          .087500236928463.022222641855478
*        0.
GRID*    10672                          .124999962747097.044444359838963
*        0.
GRID*    10673                          .137499988079071.022222189232707
*        0.
GRID*    10674                          .150000005960465 0.
*        0.
GRID*    10675                          .124999508261681 0.
*        0.
GRID*    10676                          .112499982118607.022222179919481
*        0.
GRID*    10677                          .100000485777855 0.
*        0.
$ ... 46 like lines cut
GRID     10701          .375     0.      0.
GRID*    10702                          .349999517202377 0.
*        0.
GRID*    10703                          .337500005960465.022222228348255
*        0.
GRID*    10704                          .325000494718552 0.
*        0.
GRID*    10705                          .399999767541885.044444017112255
*        0.
GRID*    10706                          .375000029802322.044444389641285
*        0.
GRID*    10707                          .387500256299973.022222666069865
*        0.
GRID*    10708                          .425000011920929.044444445520639
*        0.
GRID*    10709                          .437500029802322.022222207859159
*        0.
GRID*    10710                          .450000017881393 0.
*        0.
GRID*    10711                          .424999505281448 0.
*        0.
GRID*    10712                          .412500023841858.022222219035029
*        0.
GRID*    10713                          .400000512599945 0.
*        0.
GRID*    10714                          .474999785423279.044444020837545
*        0.
GRID*    10715                          .450000047683716.044444389641285
*        0.
GRID*    10716                          .462500274181366.022222677245736
*        0.
GRID*    10717                          .5              .04444445297122
*        0.
GRID*    10718                          .512500047683716.022222209721804
*        0.
GRID*    10719                          .525000035762787 0.
*        0.
GRID*    10720                          .499999493360519 0.
*        0.
GRID*    10721                          .487500011920929.02222222648561
*        0.
$ ... 108 like lines cut
GRID     10776          .5       0.      0.
GRID*    10777                          .575000047683716 0.
*        0.
GRID*    10778                          .600000023841858.155555635690689
*        0.
GRID*    10779                          .600000023841858.288888901472092
*        0.
GRID*    10780                          .600000023841858.422222167253494
*        0.
$ Loads for Load Case : Apoyo_simple
SPCADD   2       1
$ Displacement Constraints of Load Set : apoyo
SPC1     1       123     10005   10007   10010   10011   10012   10013
         10020   10021   10022   10032   10033   10034   10044   10045
         10046   10059   10060   10061   10068   10069   10070   10080
         10081   10082   10092   10093   10094   10100   10104   10105
         10107   10108   10109   10110   10113   10182   10183   10184
         10187   10189   10192   10258   10262   10264   10265   10266
         10269   10339   10340   10341   10344   10346   10349   10415
         10419   10421   10422   10423   10426   10497   10498   10499
         10502   10504   10507   10571   10575   10577   10578   10579
         10582   10652   10653   10654   10657   10659   10662   10665
         10666   10668   10674   10675   10677   10683   10684   10686
         10692   10693   10695   10701   10702   10704   10710   10711
         10713   10719   10720   10722   10728   10729   10731   10732
         10733
SPC1     1       123     10765   THRU    10780
$ Referenced Coordinate Frames
ENDDATA 31f0841c
