$ Elements and Element Properties for region : Rig_Int
PBARL    1       1               T2
        .012    .02     .001    .001     0.
$ Pset: "Rig_Int" will be imported as: "pbarl.1"
CBAR     7633    1       10100   10099   0.      0.     1.
                         0.      0.     -.0139   0.      0.     -.0139
CBAR     7634    1       10099   10098   0.      0.     1.
                         0.      0.     -.0139   0.      0.     -.0139
CBAR     7635    1       10098   10094   0.      0.     1.
                         0.      0.     -.0139   0.      0.     -.0139
CBAR     7636    1       10011   10008   0.      0.     1.
                         0.      0.     -.0139   0.      0.     -.0139
CBAR     7637    1       10008   10006   0.      0.     1.
                         0.      0.     -.0139   0.      0.     -.0139
CBAR     7638    1       10006   10005   0.      0.     1.
                         0.      0.     -.0139   0.      0.     -.0139
CBAR     7639    1       10100   10101   0.      0.     1.
                         0.      0.     -.0139   0.      0.     -.0139
CBAR     7640    1       10101   10103   0.      0.     1.
                         0.      0.     -.0139   0.      0.     -.0139
CBAR     7641    1       10103   10088   0.      0.     1.
                         0.      0.     -.0139   0.      0.     -.0139
CBAR     7642    1       10088   10089   0.      0.     1.
                         0.      0.     -.0139   0.      0.     -.0139
CBAR     7643    1       10089   10091   0.      0.     1.
                         0.      0.     -.0139   0.      0.     -.0139
CBAR     7644    1       10091   10076   0.      0.     1.
                         0.      0.     -.0139   0.      0.     -.0139
CBAR     7645    1       10076   10077   0.      0.     1.
                         0.      0.     -.0139   0.      0.     -.0139
CBAR     7646    1       10077   10079   0.      0.     1.
                         0.      0.     -.0139   0.      0.     -.0139
CBAR     7647    1       10079   10064   0.      0.     1.
                         0.      0.     -.0139   0.      0.     -.0139
CBAR     7648    1       10064   10065   0.      0.     1.
                         0.      0.     -.0139   0.      0.     -.0139
CBAR     7649    1       10065   10067   0.      0.     1.
                         0.      0.     -.0139   0.      0.     -.0139
CBAR     7650    1       10067   10052   0.      0.     1.
                         0.      0.     -.0139   0.      0.     -.0139
CBAR     7651    1       10052   10053   0.      0.     1.
                         0.      0.     -.0139   0.      0.     -.0139
CBAR     7652    1       10053   10055   0.      0.     1.
                         0.      0.     -.0139   0.      0.     -.0139
$ ... 4984 like lines cut
$ Elements and Element Properties for region : Rig_Ext
PBARL    2       1               BAR
        .001    .002     0.
$ Pset: "Rig_Ext" will be imported as: "pbarl.2"
CBAR     8261    2       10013   10012   0.      0.     1.
                         0.      0.     -.0015   0.      0.     -.0015
CBAR     8262    2       10012   10011   0.      0.     1.
                         0.      0.     -.0015   0.      0.     -.0015
CBAR     8263    2       10422   10423   0.      0.     1.
                         0.      0.     -.0015   0.      0.     -.0015
CBAR     8264    2       10423   10426   0.      0.     1.
                         0.      0.     -.0015   0.      0.     -.0015
CBAR     8265    2       10426   10344   0.      0.     1.
                         0.      0.     -.0015   0.      0.     -.0015
CBAR     8266    2       10344   10346   0.      0.     1.
                         0.      0.     -.0015   0.      0.     -.0015
CBAR     8267    2       10346   10349   0.      0.     1.
                         0.      0.     -.0015   0.      0.     -.0015
CBAR     8268    2       10349   10265   0.      0.     1.
                         0.      0.     -.0015   0.      0.     -.0015
CBAR     8269    2       10265   10266   0.      0.     1.
                         0.      0.     -.0015   0.      0.     -.0015
CBAR     8270    2       10266   10269   0.      0.     1.
                         0.      0.     -.0015   0.      0.     -.0015
CBAR     8271    2       10269   10187   0.      0.     1.
                         0.      0.     -.0015   0.      0.     -.0015
CBAR     8272    2       10187   10189   0.      0.     1.
                         0.      0.     -.0015   0.      0.     -.0015
CBAR     8273    2       10189   10192   0.      0.     1.
                         0.      0.     -.0015   0.      0.     -.0015
CBAR     8274    2       10192   10109   0.      0.     1.
                         0.      0.     -.0015   0.      0.     -.0015
CBAR     8275    2       10109   10110   0.      0.     1.
                         0.      0.     -.0015   0.      0.     -.0015
CBAR     8276    2       10110   10113   0.      0.     1.
                         0.      0.     -.0015   0.      0.     -.0015
CBAR     8277    2       10113   10005   0.      0.     1.
                         0.      0.     -.0015   0.      0.     -.0015
CBAR     8278    2       10005   10007   0.      0.     1.
                         0.      0.     -.0015   0.      0.     -.0015
CBAR     8279    2       10007   10010   0.      0.     1.
                         0.      0.     -.0015   0.      0.     -.0015
CBAR     8280    2       10010   10013   0.      0.     1.
                         0.      0.     -.0015   0.      0.     -.0015
$ ... 784 like lines cut
$ Elements and Element Properties for region : Panel
PSHELL   3       1      .001     1               1               0.
$ Pset: "Panel" will be imported as: "pshell.3"
CTRIA3   6274    3       10009   10010   10013   0.      0.
CTRIA3   6275    3       10013   10012   10009   0.      0.
CTRIA3   6276    3       10008   10009   10012   0.      0.
CTRIA3   6277    3       10012   10011   10008   0.      0.
CTRIA3   6278    3       10010   10009   10007   0.      0.
CTRIA3   6279    3       10006   10007   10009   0.      0.
CTRIA3   6280    3       10009   10008   10006   0.      0.
CTRIA3   6281    3       10007   10006   10005   0.      0.
CTRIA3   6282    3       10005   10006   10019   0.      0.
CTRIA3   6283    3       10018   10019   10006   0.      0.
CTRIA3   6284    3       10006   10008   10018   0.      0.
CTRIA3   6285    3       10014   10018   10008   0.      0.
CTRIA3   6286    3       10008   10011   10014   0.      0.
CTRIA3   6287    3       10019   10018   10017   0.      0.
CTRIA3   6288    3       10015   10017   10018   0.      0.
CTRIA3   6289    3       10018   10014   10015   0.      0.
CTRIA3   6290    3       10017   10015   10016   0.      0.
CTRIA3   6291    3       10016   10015   10025   0.      0.
CTRIA3   6292    3       10024   10025   10015   0.      0.
CTRIA3   6293    3       10015   10014   10024   0.      0.
$ ... 5416 like lines cut
$ Elements and Element Properties for region : conm2
CONM2    8364    10000   0      10.      0.      0.      0.
         0.      0.      0.      0.      0.      0.
$ Elements and Element Properties for region : conm2.6
CONM2    10455   10781   0      10.      0.      0.      0.
         0.      0.      0.      0.      0.      0.
$ Elements and Element Properties for region : conm2.7
CONM2    12546   11562   0      10.      0.      0.      0.
         0.      0.      0.      0.      0.      0.
$ Elements and Element Properties for region : viga_L1
PBEAML   4       1               L
        .005    .005    .001    .001
$ Pset: "viga_L1" will be imported as: "pbeaml.4"
CBEAM    14637   4       10794   13125  1.       0.      0.
                        6.1-4   -6.1-4   0.     6.1-4   -6.1-4   0.
CBEAM    14638   4       13125   13126  1.       0.      0.
                        6.1-4   -6.1-4   0.     6.1-4   -6.1-4   0.
CBEAM    14639   4       13126   13127  1.       0.      0.
                        6.1-4   -6.1-4   0.     6.1-4   -6.1-4   0.
CBEAM    14640   4       13127   13128  1.       0.      0.
                        6.1-4   -6.1-4   0.     6.1-4   -6.1-4   0.
CBEAM    14641   4       13128   13129  1.       0.      0.
                        6.1-4   -6.1-4   0.     6.1-4   -6.1-4   0.
CBEAM    14642   4       13129   13130  1.       0.      0.
                        6.1-4   -6.1-4   0.     6.1-4   -6.1-4   0.
CBEAM    14643   4       13130   10013  1.       0.      0.
                        6.1-4   -6.1-4   0.     6.1-4   -6.1-4   0.
CBEAM    14644   4       11575   13133  1.       0.      0.
                        6.1-4   -6.1-4   0.     6.1-4   -6.1-4   0.
CBEAM    14645   4       13133   13134  1.       0.      0.
                        6.1-4   -6.1-4   0.     6.1-4   -6.1-4   0.
CBEAM    14646   4       13134   13135  1.       0.      0.
                        6.1-4   -6.1-4   0.     6.1-4   -6.1-4   0.
CBEAM    14647   4       13135   13136  1.       0.      0.
                        6.1-4   -6.1-4   0.     6.1-4   -6.1-4   0.
CBEAM    14648   4       13136   13137  1.       0.      0.
                        6.1-4   -6.1-4   0.     6.1-4   -6.1-4   0.
CBEAM    14649   4       13137   13138  1.       0.      0.
                        6.1-4   -6.1-4   0.     6.1-4   -6.1-4   0.
CBEAM    14650   4       13138   10794  1.       0.      0.
                        6.1-4   -6.1-4   0.     6.1-4   -6.1-4   0.
CBEAM    14651   4       12356   13141  1.       0.      0.
                        6.1-4   -6.1-4   0.     6.1-4   -6.1-4   0.
CBEAM    14652   4       13141   13142  1.       0.      0.
                        6.1-4   -6.1-4   0.     6.1-4   -6.1-4   0.
CBEAM    14653   4       13142   13143  1.       0.      0.
                        6.1-4   -6.1-4   0.     6.1-4   -6.1-4   0.
CBEAM    14654   4       13143   13144  1.       0.      0.
                        6.1-4   -6.1-4   0.     6.1-4   -6.1-4   0.
CBEAM    14655   4       13144   13145  1.       0.      0.
                        6.1-4   -6.1-4   0.     6.1-4   -6.1-4   0.
CBEAM    14656   4       13145   13146  1.       0.      0.
                        6.1-4   -6.1-4   0.     6.1-4   -6.1-4   0.
CBEAM    14657   4       13146   11575  1.       0.      0.
                        6.1-4   -6.1-4   0.     6.1-4   -6.1-4   0.
$ Elements and Element Properties for region : viga_L2
PBEAML   5       1               L
        .005    .005    .001    .001
$ Pset: "viga_L2" will be imported as: "pbeaml.5"
CBEAM    14658   5       13000   13149   0.     1.       0.
                        6.1-4   6.1-4    0.     6.1-4   6.1-4    0.
CBEAM    14659   5       13149   13150   0.     1.       0.
                        6.1-4   6.1-4    0.     6.1-4   6.1-4    0.
CBEAM    14660   5       13150   13151   0.     1.       0.
                        6.1-4   6.1-4    0.     6.1-4   6.1-4    0.
CBEAM    14661   5       13151   13152   0.     1.       0.
                        6.1-4   6.1-4    0.     6.1-4   6.1-4    0.
CBEAM    14662   5       13152   13153   0.     1.       0.
                        6.1-4   6.1-4    0.     6.1-4   6.1-4    0.
CBEAM    14663   5       13153   13154   0.     1.       0.
                        6.1-4   6.1-4    0.     6.1-4   6.1-4    0.
CBEAM    14664   5       13154   12219   0.     1.       0.
                        6.1-4   6.1-4    0.     6.1-4   6.1-4    0.
CBEAM    14665   5       12219   13157   0.     1.       0.
                        6.1-4   6.1-4    0.     6.1-4   6.1-4    0.
CBEAM    14666   5       13157   13158   0.     1.       0.
                        6.1-4   6.1-4    0.     6.1-4   6.1-4    0.
CBEAM    14667   5       13158   13159   0.     1.       0.
                        6.1-4   6.1-4    0.     6.1-4   6.1-4    0.
CBEAM    14668   5       13159   13160   0.     1.       0.
                        6.1-4   6.1-4    0.     6.1-4   6.1-4    0.
CBEAM    14669   5       13160   13161   0.     1.       0.
                        6.1-4   6.1-4    0.     6.1-4   6.1-4    0.
CBEAM    14670   5       13161   13162   0.     1.       0.
                        6.1-4   6.1-4    0.     6.1-4   6.1-4    0.
CBEAM    14671   5       13162   11438   0.     1.       0.
                        6.1-4   6.1-4    0.     6.1-4   6.1-4    0.
CBEAM    14672   5       11438   13165   0.     1.       0.
                        6.1-4   6.1-4    0.     6.1-4   6.1-4    0.
CBEAM    14673   5       13165   13166   0.     1.       0.
                        6.1-4   6.1-4    0.     6.1-4   6.1-4    0.
CBEAM    14674   5       13166   13167   0.     1.       0.
                        6.1-4   6.1-4    0.     6.1-4   6.1-4    0.
CBEAM    14675   5       13167   13168   0.     1.       0.
                        6.1-4   6.1-4    0.     6.1-4   6.1-4    0.
CBEAM    14676   5       13168   13169   0.     1.       0.
                        6.1-4   6.1-4    0.     6.1-4   6.1-4    0.
CBEAM    14677   5       13169   13170   0.     1.       0.
                        6.1-4   6.1-4    0.     6.1-4   6.1-4    0.
CBEAM    14678   5       13170   10657   0.     1.       0.
                        6.1-4   6.1-4    0.     6.1-4   6.1-4    0.
$ Elements and Element Properties for region : viga_L3
PBEAML   8       1               L
        .005    .005    .001    .001
$ Pset: "viga_L3" will be imported as: "pbeaml.8"
CBEAM    14679   8       13071   13173  -1.      0.      0.
                        -6.1-4  6.1-4    0.     -6.1-4  6.1-4    0.
CBEAM    14680   8       13173   13174  -1.      0.      0.
                        -6.1-4  6.1-4    0.     -6.1-4  6.1-4    0.
CBEAM    14681   8       13174   13175  -1.      0.      0.
                        -6.1-4  6.1-4    0.     -6.1-4  6.1-4    0.
CBEAM    14682   8       13175   13176  -1.      0.      0.
                        -6.1-4  6.1-4    0.     -6.1-4  6.1-4    0.
CBEAM    14683   8       13176   13177  -1.      0.      0.
                        -6.1-4  6.1-4    0.     -6.1-4  6.1-4    0.
CBEAM    14684   8       13177   13178  -1.      0.      0.
                        -6.1-4  6.1-4    0.     -6.1-4  6.1-4    0.
CBEAM    14685   8       13178   12290  -1.      0.      0.
                        -6.1-4  6.1-4    0.     -6.1-4  6.1-4    0.
CBEAM    14686   8       12290   13181  -1.      0.      0.
                        -6.1-4  6.1-4    0.     -6.1-4  6.1-4    0.
CBEAM    14687   8       13181   13182  -1.      0.      0.
                        -6.1-4  6.1-4    0.     -6.1-4  6.1-4    0.
CBEAM    14688   8       13182   13183  -1.      0.      0.
                        -6.1-4  6.1-4    0.     -6.1-4  6.1-4    0.
CBEAM    14689   8       13183   13184  -1.      0.      0.
                        -6.1-4  6.1-4    0.     -6.1-4  6.1-4    0.
CBEAM    14690   8       13184   13185  -1.      0.      0.
                        -6.1-4  6.1-4    0.     -6.1-4  6.1-4    0.
CBEAM    14691   8       13185   13186  -1.      0.      0.
                        -6.1-4  6.1-4    0.     -6.1-4  6.1-4    0.
CBEAM    14692   8       13186   11509  -1.      0.      0.
                        -6.1-4  6.1-4    0.     -6.1-4  6.1-4    0.
CBEAM    14693   8       11509   13189  -1.      0.      0.
                        -6.1-4  6.1-4    0.     -6.1-4  6.1-4    0.
CBEAM    14694   8       13189   13190  -1.      0.      0.
                        -6.1-4  6.1-4    0.     -6.1-4  6.1-4    0.
CBEAM    14695   8       13190   13191  -1.      0.      0.
                        -6.1-4  6.1-4    0.     -6.1-4  6.1-4    0.
CBEAM    14696   8       13191   13192  -1.      0.      0.
                        -6.1-4  6.1-4    0.     -6.1-4  6.1-4    0.
CBEAM    14697   8       13192   13193  -1.      0.      0.
                        -6.1-4  6.1-4    0.     -6.1-4  6.1-4    0.
CBEAM    14698   8       13193   13194  -1.      0.      0.
                        -6.1-4  6.1-4    0.     -6.1-4  6.1-4    0.
CBEAM    14699   8       13194   10728  -1.      0.      0.
                        -6.1-4  6.1-4    0.     -6.1-4  6.1-4    0.
$ Elements and Element Properties for region : viga_L4
PBEAML   9       1               L
        .005    .005    .001    .001
$ Pset: "viga_L4" will be imported as: "pbeaml.9"
CBEAM    14700   9       11669   13197  -1.      0.      0.
                        -6.1-4  -6.1-4   0.     -6.1-4  -6.1-4   0.
CBEAM    14701   9       13197   13198  -1.      0.      0.
                        -6.1-4  -6.1-4   0.     -6.1-4  -6.1-4   0.
CBEAM    14702   9       13198   13199  -1.      0.      0.
                        -6.1-4  -6.1-4   0.     -6.1-4  -6.1-4   0.
CBEAM    14703   9       13199   13200  -1.      0.      0.
                        -6.1-4  -6.1-4   0.     -6.1-4  -6.1-4   0.
CBEAM    14704   9       13200   13201  -1.      0.      0.
                        -6.1-4  -6.1-4   0.     -6.1-4  -6.1-4   0.
CBEAM    14705   9       13201   13202  -1.      0.      0.
                        -6.1-4  -6.1-4   0.     -6.1-4  -6.1-4   0.
CBEAM    14706   9       13202   12450  -1.      0.      0.
                        -6.1-4  -6.1-4   0.     -6.1-4  -6.1-4   0.
CBEAM    14707   9       10888   13205  -1.      0.      0.
                        -6.1-4  -6.1-4   0.     -6.1-4  -6.1-4   0.
CBEAM    14708   9       13205   13206  -1.      0.      0.
                        -6.1-4  -6.1-4   0.     -6.1-4  -6.1-4   0.
CBEAM    14709   9       13206   13207  -1.      0.      0.
                        -6.1-4  -6.1-4   0.     -6.1-4  -6.1-4   0.
CBEAM    14710   9       13207   13208  -1.      0.      0.
                        -6.1-4  -6.1-4   0.     -6.1-4  -6.1-4   0.
CBEAM    14711   9       13208   13209  -1.      0.      0.
                        -6.1-4  -6.1-4   0.     -6.1-4  -6.1-4   0.
CBEAM    14712   9       13209   13210  -1.      0.      0.
                        -6.1-4  -6.1-4   0.     -6.1-4  -6.1-4   0.
CBEAM    14713   9       13210   11669  -1.      0.      0.
                        -6.1-4  -6.1-4   0.     -6.1-4  -6.1-4   0.
CBEAM    14714   9       10107   13213  -1.      0.      0.
                        -6.1-4  -6.1-4   0.     -6.1-4  -6.1-4   0.
CBEAM    14715   9       13213   13214  -1.      0.      0.
                        -6.1-4  -6.1-4   0.     -6.1-4  -6.1-4   0.
CBEAM    14716   9       13214   13215  -1.      0.      0.
                        -6.1-4  -6.1-4   0.     -6.1-4  -6.1-4   0.
CBEAM    14717   9       13215   13216  -1.      0.      0.
                        -6.1-4  -6.1-4   0.     -6.1-4  -6.1-4   0.
CBEAM    14718   9       13216   13217  -1.      0.      0.
                        -6.1-4  -6.1-4   0.     -6.1-4  -6.1-4   0.
CBEAM    14719   9       13217   13218  -1.      0.      0.
                        -6.1-4  -6.1-4   0.     -6.1-4  -6.1-4   0.
CBEAM    14720   9       13218   10888  -1.      0.      0.
                        -6.1-4  -6.1-4   0.     -6.1-4  -6.1-4   0.
$ Elements and Element Properties for region : cierre
PSHELL   10      1      5.-4     1               1               0.
$ Pset: "cierre" will be imported as: "pshell.10"
CQUAD4   14721   10      10728   13194   13229   10731
CQUAD4   14722   10      13194   13193   13230   13229
CQUAD4   14723   10      13193   13192   13231   13230
CQUAD4   14724   10      13192   13191   13232   13231
CQUAD4   14725   10      13191   13190   13233   13232
CQUAD4   14726   10      13190   13189   13234   13233
CQUAD4   14727   10      13189   11509   11512   13234
CQUAD4   14728   10      10731   13229   13237   10719
CQUAD4   14729   10      13229   13230   13238   13237
CQUAD4   14730   10      13230   13231   13239   13238
CQUAD4   14731   10      13231   13232   13240   13239
CQUAD4   14732   10      13232   13233   13241   13240
CQUAD4   14733   10      13233   13234   13242   13241
CQUAD4   14734   10      13234   11512   11500   13242
CQUAD4   14735   10      10719   13237   13245   10720
CQUAD4   14736   10      13237   13238   13246   13245
CQUAD4   14737   10      13238   13239   13247   13246
CQUAD4   14738   10      13239   13240   13248   13247
CQUAD4   14739   10      13240   13241   13249   13248
CQUAD4   14740   10      13241   13242   13250   13249
$ ... 1891 like lines cut
$ Elements and Element Properties for region : IF
PBUSH    11      K      1.+9    1.+9    1.+9    100.    1.+7    1.+7
$ Pset: "IF" will be imported as: "pbush.11"
CBUSH    11      11      5       10627   0.     1.       0.
CBUSH    12      11      6       10249   0.     1.       0.
CBUSH    13      11      1       10064   0.     1.       0.
CBUSH    14      11      2       10040   0.     1.       0.
CBUSH    15      11      3       10196   0.     1.       0.
CBUSH    16      11      7       10480   0.     1.       0.
CBUSH    17      11      8       10435   0.     1.       0.
CBUSH    18      11      4       10600   0.     1.       0.
$ Referenced Material Records
$ Material Record : EN_AW_7075_T6
$ Description of Material :
MAT1*    1              6.9+10          2.66917+10      .33
*       2700.
$ Multipoint Constraints of the Entire Model
RBE2     500     10000   123456  10001   10002   10003   10004
RBE2     501     10781   123456  10782   10783   10784   10785
RBE2     502     11562   123456  11563   11564   11565   11566
$ Nodes of the Entire Model
GRID*    1                              .375            .533333361148834
*       -.02
GRID*    2                              .225000008940697.533333361148834
*       -.02
GRID*    3                              .075000002980232.400000005960465
*       -.02
GRID*    4                              .1875           .066666670143604
*       -.02
GRID*    5                              .412500023841858.066666662693024
*       -.02
GRID*    6                              .524999976158142.400000005960465
*       -.02
GRID*    7                              .487500041723251.199999988079071
*       -.02
GRID*    8                              .112500004470348.200000002980232
*       -.02
GRID*    10000                          .300000011920929.300000011920929
*       .079999998211861
GRID*    10001                          .487500011920929.466666668653488
*        0.
GRID*    10002                          .112500004470348.466666698455811
*        0.
GRID*    10003                          .450000017881393.133333325386047
*        0.
GRID*    10004                          .150000005960465.133333340287209
*        0.
GRID*    10005                           0.             .533333480358124
*        0.
GRID*    10006                          .012500224635005.555556058883667
*        0.
GRID*    10007                           0.             .555555701255798
*        0.
GRID*    10008                          .025000255554914.577778279781342
*        0.
GRID*    10009                          .009375083260238.577778041362763
*        0.
GRID*    10010                           0.             .577777862548828
*        0.
GRID*    10011                          .037500001490116.600000023841858
*        0.
$ ... 1286 like lines cut
GRID     10657           0.      0.      0.
GRID*    10658                          .012499991804361.022222209721804
*        0.
GRID*    10659                           0.             .0222222302109
*        0.
GRID*    10660                          .025000246241689.044444885104895
*        0.
GRID*    10661                          .009375041350722.044444516301155
*        0.
GRID*    10662                           0.             .04444444924593
*        0.
GRID*    10663                          .049999941140413.04444433376193
*        0.
GRID*    10664                          .062499981373549.022222178056836
*        0.
GRID*    10665                          .075000002980232 0.
*        0.
GRID*    10666                          .049999509006739 0.
*        0.
GRID*    10667                          .037499971687794.02222216501832
*        0.
GRID*    10668                          .025000495836139 0.
*        0.
GRID*    10669                          .099999718368053.044443942606449
*        0.
GRID*    10670                          .074999988079071.044444411993027
*        0.
GRID*    10671                          .087500236928463.022222641855478
*        0.
GRID*    10672                          .124999962747097.044444359838963
*        0.
GRID*    10673                          .137499988079071.022222189232707
*        0.
GRID*    10674                          .150000005960465 0.
*        0.
GRID*    10675                          .124999508261681 0.
*        0.
GRID*    10676                          .112499982118607.022222179919481
*        0.
GRID*    10677                          .100000485777855 0.
*        0.
$ ... 46 like lines cut
GRID     10701          .375     0.      0.
GRID*    10702                          .349999517202377 0.
*        0.
GRID*    10703                          .337500005960465.022222228348255
*        0.
GRID*    10704                          .325000494718552 0.
*        0.
GRID*    10705                          .399999767541885.044444017112255
*        0.
GRID*    10706                          .375000029802322.044444389641285
*        0.
GRID*    10707                          .387500256299973.022222666069865
*        0.
GRID*    10708                          .425000011920929.044444445520639
*        0.
GRID*    10709                          .437500029802322.022222207859159
*        0.
GRID*    10710                          .450000017881393 0.
*        0.
GRID*    10711                          .424999505281448 0.
*        0.
GRID*    10712                          .412500023841858.022222219035029
*        0.
GRID*    10713                          .400000512599945 0.
*        0.
GRID*    10714                          .474999785423279.044444020837545
*        0.
GRID*    10715                          .450000047683716.044444389641285
*        0.
GRID*    10716                          .462500274181366.022222677245736
*        0.
GRID*    10717                          .5              .04444445297122
*        0.
GRID*    10718                          .512500047683716.022222209721804
*        0.
GRID*    10719                          .525000035762787 0.
*        0.
GRID*    10720                          .499999493360519 0.
*        0.
GRID*    10721                          .487500011920929.02222222648561
*        0.
$ ... 1336 like lines cut
GRID     11438           0.      0.     .2
GRID*    11439                          .012499991804361.022222209721804
*       .2
GRID*    11440                           0.             .0222222302109
*       .2
GRID*    11441                          .025000246241689.044444885104895
*       .2
GRID*    11442                          .009375041350722.044444516301155
*       .2
GRID*    11443                           0.             .04444444924593
*       .2
GRID*    11444                          .049999941140413.04444433376193
*       .2
GRID*    11445                          .062499981373549.022222178056836
*       .2
GRID*    11446                          .075000002980232 0.
*       .2
GRID*    11447                          .049999509006739 0.
*       .2
GRID*    11448                          .037499971687794.02222216501832
*       .2
GRID*    11449                          .025000495836139 0.
*       .2
GRID*    11450                          .099999718368053.044443942606449
*       .2
GRID*    11451                          .074999988079071.044444411993027
*       .2
GRID*    11452                          .087500236928463.022222641855478
*       .2
GRID*    11453                          .124999962747097.044444359838963
*       .2
GRID*    11454                          .137499988079071.022222189232707
*       .2
GRID*    11455                          .150000005960465 0.
*       .2
GRID*    11456                          .124999508261681 0.
*       .2
GRID*    11457                          .112499982118607.022222179919481
*       .2
GRID*    11458                          .100000485777855 0.
*       .2
$ ... 46 like lines cut
GRID     11482          .375     0.     .2
GRID*    11483                          .349999517202377 0.
*       .2
GRID*    11484                          .337500005960465.022222228348255
*       .2
GRID*    11485                          .325000494718552 0.
*       .2
GRID*    11486                          .399999767541885.044444017112255
*       .2
GRID*    11487                          .375000029802322.044444389641285
*       .2
GRID*    11488                          .387500256299973.022222666069865
*       .2
GRID*    11489                          .425000011920929.044444445520639
*       .2
GRID*    11490                          .437500029802322.022222207859159
*       .2
GRID*    11491                          .450000017881393 0.
*       .2
GRID*    11492                          .424999505281448 0.
*       .2
GRID*    11493                          .412500023841858.022222219035029
*       .2
GRID*    11494                          .400000512599945 0.
*       .2
GRID*    11495                          .474999785423279.044444020837545
*       .2
GRID*    11496                          .450000047683716.044444389641285
*       .2
GRID*    11497                          .462500274181366.022222677245736
*       .2
GRID*    11498                          .5              .04444445297122
*       .2
GRID*    11499                          .512500047683716.022222209721804
*       .2
GRID*    11500                          .525000035762787 0.
*       .2
GRID*    11501                          .499999493360519 0.
*       .2
GRID*    11502                          .487500011920929.02222222648561
*       .2
$ ... 1336 like lines cut
GRID     12219           0.      0.     .4
GRID*    12220                          .012499991804361.022222209721804
*       .4
GRID*    12221                           0.             .0222222302109
*       .4
GRID*    12222                          .025000246241689.044444885104895
*       .4
GRID*    12223                          .009375041350722.044444516301155
*       .4
GRID*    12224                           0.             .04444444924593
*       .4
GRID*    12225                          .049999941140413.04444433376193
*       .4
GRID*    12226                          .062499981373549.022222178056836
*       .4
GRID*    12227                          .075000002980232 0.
*       .4
GRID*    12228                          .049999509006739 0.
*       .4
GRID*    12229                          .037499971687794.02222216501832
*       .4
GRID*    12230                          .025000495836139 0.
*       .4
GRID*    12231                          .099999718368053.044443942606449
*       .4
GRID*    12232                          .074999988079071.044444411993027
*       .4
GRID*    12233                          .087500236928463.022222641855478
*       .4
GRID*    12234                          .124999962747097.044444359838963
*       .4
GRID*    12235                          .137499988079071.022222189232707
*       .4
GRID*    12236                          .150000005960465 0.
*       .4
GRID*    12237                          .124999508261681 0.
*       .4
GRID*    12238                          .112499982118607.022222179919481
*       .4
GRID*    12239                          .100000485777855 0.
*       .4
$ ... 46 like lines cut
GRID     12263          .375     0.     .4
GRID*    12264                          .349999517202377 0.
*       .4
GRID*    12265                          .337500005960465.022222228348255
*       .4
GRID*    12266                          .325000494718552 0.
*       .4
GRID*    12267                          .399999767541885.044444017112255
*       .4
GRID*    12268                          .375000029802322.044444389641285
*       .4
GRID*    12269                          .387500256299973.022222666069865
*       .4
GRID*    12270                          .425000011920929.044444445520639
*       .4
GRID*    12271                          .437500029802322.022222207859159
*       .4
GRID*    12272                          .450000017881393 0.
*       .4
GRID*    12273                          .424999505281448 0.
*       .4
GRID*    12274                          .412500023841858.022222219035029
*       .4
GRID*    12275                          .400000512599945 0.
*       .4
GRID*    12276                          .474999785423279.044444020837545
*       .4
GRID*    12277                          .450000047683716.044444389641285
*       .4
GRID*    12278                          .462500274181366.022222677245736
*       .4
GRID*    12279                          .5              .04444445297122
*       .4
GRID*    12280                          .512500047683716.022222209721804
*       .4
GRID*    12281                          .525000035762787 0.
*       .4
GRID*    12282                          .499999493360519 0.
*       .4
GRID*    12283                          .487500011920929.02222222648561
*       .4
$ ... 1334 like lines cut
GRID     13000           0.      0.     .6
GRID*    13001                          .012499991804361.022222209721804
*       .6
GRID*    13002                           0.             .0222222302109
*       .6
GRID*    13003                          .025000246241689.044444885104895
*       .6
GRID*    13004                          .009375041350722.044444516301155
*       .6
GRID*    13005                           0.             .04444444924593
*       .6
GRID*    13006                          .049999941140413.04444433376193
*       .6
GRID*    13007                          .062499981373549.022222178056836
*       .6
GRID*    13008                          .075000002980232 0.
*       .6
GRID*    13009                          .049999509006739 0.
*       .6
GRID*    13010                          .037499971687794.02222216501832
*       .6
GRID*    13011                          .025000495836139 0.
*       .6
GRID*    13012                          .099999718368053.044443942606449
*       .6
GRID*    13013                          .074999988079071.044444411993027
*       .6
GRID*    13014                          .087500236928463.022222641855478
*       .6
GRID*    13015                          .124999962747097.044444359838963
*       .6
GRID*    13016                          .137499988079071.022222189232707
*       .6
GRID*    13017                          .150000005960465 0.
*       .6
GRID*    13018                          .124999508261681 0.
*       .6
GRID*    13019                          .112499982118607.022222179919481
*       .6
GRID*    13020                          .100000485777855 0.
*       .6
$ ... 46 like lines cut
GRID     13044          .375     0.     .6
GRID*    13045                          .349999517202377 0.
*       .6
GRID*    13046                          .337500005960465.022222228348255
*       .6
GRID*    13047                          .325000494718552 0.
*       .6
GRID*    13048                          .399999767541885.044444017112255
*       .6
GRID*    13049                          .375000029802322.044444389641285
*       .6
GRID*    13050                          .387500256299973.022222666069865
*       .6
GRID*    13051                          .425000011920929.044444445520639
*       .6
GRID*    13052                          .437500029802322.022222207859159
*       .6
GRID*    13053                          .450000017881393 0.
*       .6
GRID*    13054                          .424999505281448 0.
*       .6
GRID*    13055                          .412500023841858.022222219035029
*       .6
GRID*    13056                          .400000512599945 0.
*       .6
GRID*    13057                          .474999785423279.044444020837545
*       .6
GRID*    13058                          .450000047683716.044444389641285
*       .6
GRID*    13059                          .462500274181366.022222677245736
*       .6
GRID*    13060                          .5              .04444445297122
*       .6
GRID*    13061                          .512500047683716.022222209721804
*       .6
GRID*    13062                          .525000035762787 0.
*       .6
GRID*    13063                          .499999493360519 0.
*       .6
GRID*    13064                          .487500011920929.02222222648561
*       .6
$ ... 3302 like lines cut